43363487
  -OEChem-07182213013D

 24 25  0     0  0  0  0  0  0999 V2000
    4.4789   -0.5372   -0.1428 O   0  0  0  0  0  0  0  0  0  0  0  0
    3.9415    1.5712    0.5149 O   0  0  0  0  0  0  0  0  0  0  0  0
    0.0642   -0.1015   -0.1164 N   0  0  0  0  0  0  0  0  0  0  0  0
    0.5336   -1.3039   -0.4874 N   0  0  0  0  0  0  0  0  0  0  0  0
    1.8596   -1.2429   -0.4344 N   0  0  0  0  0  0  0  0  0  0  0  0
   -1.2950    0.1588   -0.0654 C   0  0  0  0  0  0  0  0  0  0  0  0
   -2.2094   -0.8561    0.2165 C   0  0  0  0  0  0  0  0  0  0  0  0
   -1.7455    1.4578   -0.3004 C   0  0  0  0  0  0  0  0  0  0  0  0
   -3.5743   -0.5719    0.2633 C   0  0  0  0  0  0  0  0  0  0  0  0
    1.0736    0.7605    0.1836 C   0  0  0  0  0  0  0  0  0  0  0  0
   -1.7593   -2.2581    0.4741 C   0  0  0  0  0  0  0  0  0  0  0  0
   -3.1103    1.7421   -0.2535 C   0  0  0  0  0  0  0  0  0  0  0  0
   -4.0246    0.7272    0.0284 C   0  0  0  0  0  0  0  0  0  0  0  0
    2.2065    0.0147   -0.0252 C   0  0  0  0  0  0  0  0  0  0  0  0
    3.5605    0.4395    0.1446 C   0  0  0  0  0  0  0  0  0  0  0  0
   -1.0658    2.2709   -0.5411 H   0  0  0  0  0  0  0  0  0  0  0  0
   -4.3012   -1.3505    0.4795 H   0  0  0  0  0  0  0  0  0  0  0  0
    0.9281    1.7782    0.5202 H   0  0  0  0  0  0  0  0  0  0  0  0
   -1.4596   -2.7600   -0.4512 H   0  0  0  0  0  0  0  0  0  0  0  0
   -0.9714   -2.3052    1.2331 H   0  0  0  0  0  0  0  0  0  0  0  0
   -2.5834   -2.8545    0.8859 H   0  0  0  0  0  0  0  0  0  0  0  0
   -3.4619    2.7526   -0.4407 H   0  0  0  0  0  0  0  0  0  0  0  0
   -5.0874    0.9484    0.0636 H   0  0  0  0  0  0  0  0  0  0  0  0
    5.3980   -0.2176   -0.0175 H   0  0  0  0  0  0  0  0  0  0  0  0
  1 15  1  0  0  0  0
  1 24  1  0  0  0  0
  2 15  2  0  0  0  0
  3  4  1  0  0  0  0
  3  6  1  0  0  0  0
  3 10  1  0  0  0  0
  4  5  2  0  0  0  0
  5 14  1  0  0  0  0
  6  7  1  0  0  0  0
  6  8  2  0  0  0  0
  7  9  2  0  0  0  0
  7 11  1  0  0  0  0
  8 12  1  0  0  0  0
  8 16  1  0  0  0  0
  9 13  1  0  0  0  0
  9 17  1  0  0  0  0
 10 14  2  0  0  0  0
 10 18  1  0  0  0  0
 11 19  1  0  0  0  0
 11 20  1  0  0  0  0
 11 21  1  0  0  0  0
 12 13  2  0  0  0  0
 12 22  1  0  0  0  0
 13 23  1  0  0  0  0
 14 15  1  0  0  0  0
M  END
> <PUBCHEM_COMPOUND_CID>
43363487

> <PUBCHEM_CONFORMER_RMSD>
0.6

> <PUBCHEM_CONFORMER_DIVERSEORDER>
1
4
3
2

> <PUBCHEM_MMFF94_PARTIAL_CHARGES>
21
1 -0.65
10 -0.3
11 0.14
12 -0.15
13 -0.15
14 0.14
15 0.81
16 0.15
17 0.15
18 0.15
2 -0.57
22 0.15
23 0.15
24 0.5
3 0.59
4 -0.42
5 -0.23
6 -0.02
7 -0.14
8 -0.15
9 -0.15

> <PUBCHEM_EFFECTIVE_ROTOR_COUNT>
2

> <PUBCHEM_PHARMACOPHORE_FEATURES>
5
1 1 acceptor
1 2 acceptor
3 1 2 15 anion
5 3 4 5 10 14 rings
6 6 7 8 9 12 13 rings

> <PUBCHEM_HEAVY_ATOM_COUNT>
15

> <PUBCHEM_ATOM_DEF_STEREO_COUNT>
0

> <PUBCHEM_ATOM_UDEF_STEREO_COUNT>
0

> <PUBCHEM_BOND_DEF_STEREO_COUNT>
0

> <PUBCHEM_BOND_UDEF_STEREO_COUNT>
0

> <PUBCHEM_ISOTOPIC_ATOM_COUNT>
0

> <PUBCHEM_COMPONENT_COUNT>
1

> <PUBCHEM_CACTVS_TAUTO_COUNT>
1

> <PUBCHEM_CONFORMER_ID>
0295AC9F00000001

> <PUBCHEM_MMFF94_ENERGY>
41.6328

> <PUBCHEM_FEATURE_SELFOVERLAP>
25.43

> <PUBCHEM_SHAPE_FINGERPRINT>
10608611 8 18411980243391318028
11132069 177 18334855047510872548
11543360 7 15267050484501114928
12119455 92 17775564225821133286
12251169 10 18187365449617070701
12500047 106 18408600344684230499
13024252 1 13334734631397279061
13081056 2 18342176669818102692
13214271 11 18411979204262108925
13380535 76 18411418388828630631
14144814 61 18334575715849150953
14325111 11 18411136917962049988
15196674 1 18411701001755084969
15219456 202 18342179925266052759
15309172 13 17561368387231416959
15375358 24 18413388726439431959
16945 1 18335713766477027703
18175812 5 18411982477048339484
18186145 218 18196940980635519765
200 152 17632852032279023349
20201158 50 18343022177158939163
20279233 1 18342182154348811103
20510252 161 18341052926385828161
20528008 55 18411133641144570253
20645477 56 18335706009729330253
20645477 70 17489596619409927366
20871998 184 18341901848162666559
23402539 116 18409721894469814535
23402655 69 18129370519858699221
23559900 14 18269554949422543270
2748010 2 18191597358741275191
474 4 16517105123208300956
5104073 3 18410575084673661882
6333449 129 18409446986234108229
69090 78 18412259532693807799
7364860 26 18194681462771430426
77779 3 18409168813987079832
8809292 202 18335987544455736115
90316 7 17530953670656246876
9709674 26 18412550902779686191

> <PUBCHEM_SHAPE_MULTIPOLES>
282.01
7.71
1.83
0.66
4.84
0.34
-0.01
-1.84
-0.52
-0.93
-0.07
0
0.02
0.61

> <PUBCHEM_SHAPE_SELFOVERLAP>
611.02

> <PUBCHEM_SHAPE_VOLUME>
155.4

> <PUBCHEM_COORDINATE_TYPE>
2
5
10

$$$$
