# created with PyMOL 2.5.2
@<TRIPOS>MOLECULE
K2P
19 19 1                 
SMALL
USER_CHARGES
@<TRIPOS>ATOM
1	  C4	-0.681	2.663	0.000	C.2	1	K2P0	0.000	
2	  C5	0.251	1.644	0.000	C.2	1	K2P0	0.000	
3	  C6	-0.166	0.321	0.000	C.2	1	K2P0	0.000	
4	  C7	2.126	-0.302	-0.000	C.3	1	K2P0	0.000	
5	   C	-1.991	-1.377	0.000	C.2	1	K2P0	0.000	
6	   O	-1.178	-2.280	0.001	O.co2	1	K2P0	0.000	
7	  C1	-1.536	0.025	-0.000	C.2	1	K2P0	0.000	
8	  C2	-2.468	1.066	-0.000	C.2	1	K2P0	0.000	
9	  C3	-2.036	2.375	-0.000	C.2	1	K2P0	0.000	
10	   F	2.401	0.457	-1.142	 F	1	K2P0	0.000	
11	  F1	2.926	-1.451	-0.000	 F	1	K2P0	0.000	
12	  F2	2.401	0.457	1.142	 F	1	K2P0	0.000	
13	  O1	-3.309	-1.658	-0.000	O.3	1	K2P0	0.000	
14	  O2	0.748	-0.681	-0.000	O.3	1	K2P0	0.000	
15	  H1	-0.351	3.692	0.005	 H	1	K2P0	0.000	
16	  H2	1.305	1.877	0.000	 H	1	K2P0	0.000	
17	  H3	-3.525	0.846	-0.001	 H	1	K2P0	0.000	
18	  H4	-2.757	3.179	0.004	 H	1	K2P0	0.000	
19	  H5	-3.559	-2.592	0.000	 H	1	K2P0	0.000	
@<TRIPOS>BOND
1 1 9 2
2 1 15 1
3 1 2 1
4 2 16 1
5 2 3 2
6 3 7 1
7 4 12 1
8 4 14 1
9 5 13 1
10 5 6 2
11 5 7 1
12 7 8 2
13 8 9 1
14 8 17 1
15 9 18 1
16 4 10 1
17 4 11 1
18 13 19 1
19 3 14 1
@<TRIPOS>SUBSTRUCTURE
1	K2P0	1	GROUP	1 ****	K2P
