Mrv15a5
  02212215582D

 26 28  0  0  0  0            999 V2000
   -3.3847   -2.9374    0.0000 C   0  0  0  0  0  0  0  0  0  0  0  0
   -4.0992   -3.3499    0.0000 C   0  0  0  0  0  0  0  0  0  0  0  0
   -4.0992   -4.1749    0.0000 C   0  0  0  0  0  0  0  0  0  0  0  0
   -3.4317   -4.6598    0.0000 N   0  0  0  0  0  0  0  0  0  0  0  0
   -3.6867   -5.4445    0.0000 N   0  0  0  0  0  0  0  0  0  0  0  0
   -3.2018   -6.1119    0.0000 C   0  0  0  0  0  0  0  0  0  0  0  0
   -4.5117   -5.4445    0.0000 C   0  0  0  0  0  0  0  0  0  0  0  0
   -4.7666   -4.6598    0.0000 C   0  0  0  0  0  0  0  0  0  0  0  0
   -5.5512   -4.4049    0.0000 N   0  0  0  0  0  0  0  0  0  0  0  0
   -5.7228   -3.5979    0.0000 C   0  0  0  0  0  0  0  0  0  0  0  0
   -5.1097   -3.0459    0.0000 O   0  0  0  0  0  0  0  0  0  0  0  0
   -6.5074   -3.3430    0.0000 C   0  0  0  0  0  0  0  0  0  0  0  0
   -7.1748   -3.8279    0.0000 C   0  0  0  0  0  0  0  0  0  0  0  0
   -7.8423   -3.3430    0.0000 N   0  0  0  0  0  0  0  0  0  0  0  0
   -7.5873   -2.5584    0.0000 N   0  0  0  0  0  0  0  0  0  0  0  0
   -8.0723   -1.8909    0.0000 C   0  0  0  0  0  0  0  0  0  0  0  0
   -7.7367   -1.1373    0.0000 C   0  0  0  0  0  0  0  0  0  0  0  0
   -6.9162   -1.0510    0.0000 O   0  0  0  0  0  0  0  0  0  0  0  0
   -8.2216   -0.4698    0.0000 N   0  0  0  0  0  0  0  0  0  0  0  0
   -9.0421   -0.5561    0.0000 C   0  0  0  0  0  0  0  0  0  0  0  0
   -9.3777   -1.3097    0.0000 C   0  0  0  0  0  0  0  0  0  0  0  0
  -10.1981   -1.3960    0.0000 C   0  0  0  0  0  0  0  0  0  0  0  0
  -10.6831   -0.7285    0.0000 C   0  0  0  0  0  0  0  0  0  0  0  0
  -10.3475    0.0251    0.0000 C   0  0  0  0  0  0  0  0  0  0  0  0
   -9.5270    0.1114    0.0000 C   0  0  0  0  0  0  0  0  0  0  0  0
   -6.7623   -2.5584    0.0000 C   0  0  0  0  0  0  0  0  0  0  0  0
  1  2  1  0  0  0  0
  2  3  1  0  0  0  0
  3  4  4  0  0  0  0
  4  5  4  0  0  0  0
  5  6  1  0  0  0  0
  5  7  4  0  0  0  0
  7  8  4  0  0  0  0
  3  8  4  0  0  0  0
  8  9  1  0  0  0  0
  9 10  1  0  0  0  0
 10 11  2  0  0  0  0
 10 12  1  0  0  0  0
 12 13  4  0  0  0  0
 13 14  4  0  0  0  0
 14 15  4  0  0  0  0
 15 16  1  0  0  0  0
 16 17  1  0  0  0  0
 17 18  2  0  0  0  0
 17 19  1  0  0  0  0
 19 20  1  0  0  0  0
 20 21  1  0  0  0  0
 21 22  1  0  0  0  0
 22 23  1  0  0  0  0
 23 24  1  0  0  0  0
 24 25  1  0  0  0  0
 20 25  1  0  0  0  0
 15 26  4  0  0  0  0
 12 26  4  0  0  0  0
M  END
$$$$
