MODEL 1
REMARK VINA RESULT:      -4.8      0.000      0.000
REMARK  1 active torsions:
REMARK  status: ('A' for Active; 'I' for Inactive)
REMARK    1  A    between atoms: C_8  and  C_11 
ROOT
HETATM    1  I   UNK     0     -18.362  31.934 -76.635  0.00  0.00    -0.087 I 
HETATM    2  C   UNK     0     -16.319  32.522 -76.785  0.00  0.00     0.111 C 
ENDROOT
BRANCH   2   3
HETATM    3  C   UNK     0     -15.498  31.455 -77.486  0.00  0.00     0.131 C 
HETATM    4  O   UNK     0     -16.352  30.674 -78.345  0.00  0.00    -0.380 OA
HETATM    5  C   UNK     0     -15.843  30.768 -79.686  0.00  0.00     0.126 C 
HETATM    6  C   UNK     0     -14.355  31.066 -79.536  0.00  0.00     0.017 C 
HETATM    7  C   UNK     0     -16.173  29.513 -80.485  0.00  0.00     0.032 C 
HETATM    8  C   UNK     0     -14.388  32.029 -78.363  0.00  0.00     0.039 C 
HETATM    9  C   UNK     0     -13.510  29.823 -79.218  0.00  0.00     0.007 C 
HETATM   10  C   UNK     0     -13.831  28.660 -80.148  0.00  0.00     0.001 C 
HETATM   11  C   UNK     0     -15.315  28.315 -80.089  0.00  0.00     0.002 C 
ENDBRANCH   2   3
TORSDOF 1
ENDMDL
MODEL 2
REMARK VINA RESULT:      -4.6      2.150      3.617
REMARK  1 active torsions:
REMARK  status: ('A' for Active; 'I' for Inactive)
REMARK    1  A    between atoms: C_8  and  C_11 
ROOT
HETATM    1  I   UNK     0     -17.753  33.011 -82.109  0.00  0.00    -0.087 I 
HETATM    2  C   UNK     0     -16.815  31.113 -81.864  0.00  0.00     0.111 C 
ENDROOT
BRANCH   2   3
HETATM    3  C   UNK     0     -15.836  31.138 -80.704  0.00  0.00     0.131 C 
HETATM    4  O   UNK     0     -16.474  31.707 -79.544  0.00  0.00    -0.380 OA
HETATM    5  C   UNK     0     -16.421  30.738 -78.484  0.00  0.00     0.126 C 
HETATM    6  C   UNK     0     -15.213  29.860 -78.796  0.00  0.00     0.017 C 
HETATM    7  C   UNK     0     -16.389  31.420 -77.121  0.00  0.00     0.032 C 
HETATM    8  C   UNK     0     -15.340  29.750 -80.305  0.00  0.00     0.039 C 
HETATM    9  C   UNK     0     -13.874  30.495 -78.391  0.00  0.00     0.007 C 
HETATM   10  C   UNK     0     -13.907  31.042 -76.969  0.00  0.00     0.001 C 
HETATM   11  C   UNK     0     -15.038  32.053 -76.806  0.00  0.00     0.002 C 
ENDBRANCH   2   3
TORSDOF 1
ENDMDL
MODEL 3
REMARK VINA RESULT:      -4.6     26.114     27.602
REMARK  1 active torsions:
REMARK  status: ('A' for Active; 'I' for Inactive)
REMARK    1  A    between atoms: C_8  and  C_11 
ROOT
HETATM    1  I   UNK     0      -3.346  37.297 -51.710  0.00  0.00    -0.087 I 
HETATM    2  C   UNK     0      -4.096  38.700 -53.130  0.00  0.00     0.111 C 
ENDROOT
BRANCH   2   3
HETATM    3  C   UNK     0      -3.485  38.465 -54.499  0.00  0.00     0.131 C 
HETATM    4  O   UNK     0      -4.188  39.249 -55.483  0.00  0.00    -0.380 OA
HETATM    5  C   UNK     0      -3.237  40.115 -56.126  0.00  0.00     0.126 C 
HETATM    6  C   UNK     0      -1.890  39.414 -55.988  0.00  0.00     0.017 C 
HETATM    7  C   UNK     0      -3.661  40.425 -57.557  0.00  0.00     0.032 C 
HETATM    8  C   UNK     0      -2.013  38.864 -54.578  0.00  0.00     0.039 C 
HETATM    9  C   UNK     0      -1.678  38.289 -57.012  0.00  0.00     0.007 C 
HETATM   10  C   UNK     0      -2.017  38.734 -58.430  0.00  0.00     0.001 C 
HETATM   11  C   UNK     0      -3.449  39.250 -58.505  0.00  0.00     0.002 C 
ENDBRANCH   2   3
TORSDOF 1
ENDMDL
MODEL 4
REMARK VINA RESULT:      -4.5     26.176     27.556
REMARK  1 active torsions:
REMARK  status: ('A' for Active; 'I' for Inactive)
REMARK    1  A    between atoms: C_8  and  C_11 
ROOT
HETATM    1  I   UNK     0       2.550  35.721 -54.822  0.00  0.00    -0.087 I 
HETATM    2  C   UNK     0       2.009  36.337 -56.790  0.00  0.00     0.111 C 
ENDROOT
BRANCH   2   3
HETATM    3  C   UNK     0       0.859  37.325 -56.752  0.00  0.00     0.131 C 
HETATM    4  O   UNK     0       0.169  37.314 -58.018  0.00  0.00    -0.380 OA
HETATM    5  C   UNK     0      -1.207  36.975 -57.774  0.00  0.00     0.126 C 
HETATM    6  C   UNK     0      -1.483  37.406 -56.338  0.00  0.00     0.017 C 
HETATM    7  C   UNK     0      -2.118  37.601 -58.823  0.00  0.00     0.032 C 
HETATM    8  C   UNK     0      -0.176  37.003 -55.677  0.00  0.00     0.039 C 
HETATM    9  C   UNK     0      -1.745  38.913 -56.190  0.00  0.00     0.007 C 
HETATM   10  C   UNK     0      -2.758  39.420 -57.208  0.00  0.00     0.001 C 
HETATM   11  C   UNK     0      -2.302  39.103 -58.628  0.00  0.00     0.002 C 
ENDBRANCH   2   3
TORSDOF 1
ENDMDL
MODEL 5
REMARK VINA RESULT:      -4.5     32.043     33.814
REMARK  1 active torsions:
REMARK  status: ('A' for Active; 'I' for Inactive)
REMARK    1  A    between atoms: C_8  and  C_11 
ROOT
HETATM    1  I   UNK     0     -33.316   7.204-101.002  0.00  0.00    -0.087 I 
HETATM    2  C   UNK     0     -32.057   8.912-100.804  0.00  0.00     0.111 C 
ENDROOT
BRANCH   2   3
HETATM    3  C   UNK     0     -32.751  10.010-100.020  0.00  0.00     0.131 C 
HETATM    4  O   UNK     0     -31.858  11.130 -99.860  0.00  0.00    -0.380 OA
HETATM    5  C   UNK     0     -32.486  12.288-100.434  0.00  0.00     0.126 C 
HETATM    6  C   UNK     0     -33.985  12.016-100.363  0.00  0.00     0.017 C 
HETATM    7  C   UNK     0     -32.026  13.562 -99.736  0.00  0.00     0.032 C 
HETATM    8  C   UNK     0     -34.009  10.537-100.707  0.00  0.00     0.039 C 
HETATM    9  C   UNK     0     -34.589  12.279 -98.975  0.00  0.00     0.007 C 
HETATM   10  C   UNK     0     -34.164  13.629 -98.412  0.00  0.00     0.001 C 
HETATM   11  C   UNK     0     -32.644  13.735 -98.352  0.00  0.00     0.002 C 
ENDBRANCH   2   3
TORSDOF 1
ENDMDL
MODEL 6
REMARK VINA RESULT:      -4.5      2.439      3.368
REMARK  1 active torsions:
REMARK  status: ('A' for Active; 'I' for Inactive)
REMARK    1  A    between atoms: C_8  and  C_11 
ROOT
HETATM    1  I   UNK     0     -18.394  32.887 -81.428  0.00  0.00    -0.087 I 
HETATM    2  C   UNK     0     -18.826  32.973 -79.342  0.00  0.00     0.111 C 
ENDROOT
BRANCH   2   3
HETATM    3  C   UNK     0     -17.729  32.307 -78.533  0.00  0.00     0.131 C 
HETATM    4  O   UNK     0     -16.589  32.055 -79.379  0.00  0.00    -0.380 OA
HETATM    5  C   UNK     0     -15.453  32.728 -78.810  0.00  0.00     0.126 C 
HETATM    6  C   UNK     0     -15.754  32.844 -77.319  0.00  0.00     0.017 C 
HETATM    7  C   UNK     0     -14.159  32.001 -79.152  0.00  0.00     0.032 C 
HETATM    8  C   UNK     0     -17.239  33.160 -77.365  0.00  0.00     0.039 C 
HETATM    9  C   UNK     0     -15.480  31.551 -76.536  0.00  0.00     0.007 C 
HETATM   10  C   UNK     0     -14.112  30.965 -76.861  0.00  0.00     0.001 C 
HETATM   11  C   UNK     0     -13.975  30.712 -78.358  0.00  0.00     0.002 C 
ENDBRANCH   2   3
TORSDOF 1
ENDMDL
MODEL 7
REMARK VINA RESULT:      -4.2     12.695     14.006
REMARK  1 active torsions:
REMARK  status: ('A' for Active; 'I' for Inactive)
REMARK    1  A    between atoms: C_8  and  C_11 
ROOT
HETATM    1  I   UNK     0     -17.437  30.147 -66.425  0.00  0.00    -0.087 I 
HETATM    2  C   UNK     0     -17.236  32.261 -66.613  0.00  0.00     0.111 C 
ENDROOT
BRANCH   2   3
HETATM    3  C   UNK     0     -18.583  32.914 -66.863  0.00  0.00     0.131 C 
HETATM    4  O   UNK     0     -19.638  31.993 -66.520  0.00  0.00    -0.380 OA
HETATM    5  C   UNK     0     -20.459  32.611 -65.515  0.00  0.00     0.126 C 
HETATM    6  C   UNK     0     -20.287  34.113 -65.715  0.00  0.00     0.017 C 
HETATM    7  C   UNK     0     -21.896  32.108 -65.598  0.00  0.00     0.032 C 
HETATM    8  C   UNK     0     -18.804  34.176 -66.034  0.00  0.00     0.039 C 
HETATM    9  C   UNK     0     -21.133  34.678 -66.867  0.00  0.00     0.007 C 
HETATM   10  C   UNK     0     -22.582  34.211 -66.795  0.00  0.00     0.001 C 
HETATM   11  C   UNK     0     -22.658  32.688 -66.785  0.00  0.00     0.002 C 
ENDBRANCH   2   3
TORSDOF 1
ENDMDL
MODEL 8
REMARK VINA RESULT:      -4.2     45.230     46.638
REMARK  1 active torsions:
REMARK  status: ('A' for Active; 'I' for Inactive)
REMARK    1  A    between atoms: C_8  and  C_11 
ROOT
HETATM    1  I   UNK     0      16.814  58.889 -52.381  0.00  0.00    -0.087 I 
HETATM    2  C   UNK     0      15.900  57.552 -53.767  0.00  0.00     0.111 C 
ENDROOT
BRANCH   2   3
HETATM    3  C   UNK     0      14.512  58.031 -54.149  0.00  0.00     0.131 C 
HETATM    4  O   UNK     0      13.774  56.948 -54.748  0.00  0.00    -0.380 OA
HETATM    5  C   UNK     0      12.582  56.738 -53.972  0.00  0.00     0.126 C 
HETATM    6  C   UNK     0      12.287  58.079 -53.308  0.00  0.00     0.017 C 
HETATM    7  C   UNK     0      11.456  56.184 -54.838  0.00  0.00     0.032 C 
HETATM    8  C   UNK     0      13.696  58.523 -52.957  0.00  0.00     0.039 C 
HETATM    9  C   UNK     0      11.598  59.086 -54.241  0.00  0.00     0.007 C 
HETATM   10  C   UNK     0      10.412  58.468 -54.973  0.00  0.00     0.001 C 
HETATM   11  C   UNK     0      10.846  57.235 -55.759  0.00  0.00     0.002 C 
ENDBRANCH   2   3
TORSDOF 1
ENDMDL
MODEL 9
REMARK VINA RESULT:      -4.1      2.363      2.835
REMARK  1 active torsions:
REMARK  status: ('A' for Active; 'I' for Inactive)
REMARK    1  A    between atoms: C_8  and  C_11 
ROOT
HETATM    1  I   UNK     0     -19.494  34.008 -79.085  0.00  0.00    -0.087 I 
HETATM    2  C   UNK     0     -17.467  34.516 -79.504  0.00  0.00     0.111 C 
ENDROOT
BRANCH   2   3
HETATM    3  C   UNK     0     -16.514  33.681 -78.668  0.00  0.00     0.131 C 
HETATM    4  O   UNK     0     -17.155  32.446 -78.294  0.00  0.00    -0.380 OA
HETATM    5  C   UNK     0     -16.353  31.359 -78.787  0.00  0.00     0.126 C 
HETATM    6  C   UNK     0     -14.936  31.914 -78.892  0.00  0.00     0.017 C 
HETATM    7  C   UNK     0     -16.500  30.126 -77.904  0.00  0.00     0.032 C 
HETATM    8  C   UNK     0     -15.230  33.313 -79.407  0.00  0.00     0.039 C 
HETATM    9  C   UNK     0     -14.194  31.956 -77.548  0.00  0.00     0.007 C 
HETATM   10  C   UNK     0     -14.302  30.636 -76.794  0.00  0.00     0.001 C 
HETATM   11  C   UNK     0     -15.763  30.257 -76.576  0.00  0.00     0.002 C 
ENDBRANCH   2   3
TORSDOF 1
ENDMDL
