MODEL 1
REMARK VINA RESULT:      -4.7      0.000      0.000
REMARK  1 active torsions:
REMARK  status: ('A' for Active; 'I' for Inactive)
REMARK    1  A    between atoms: C_8  and  C_11 
ROOT
HETATM    1  I   UNK     0     -26.324   8.844   1.670  0.00  0.00    -0.087 I 
HETATM    2  C   UNK     0     -26.381   8.773   3.799  0.00  0.00     0.111 C 
ENDROOT
BRANCH   2   3
HETATM    3  C   UNK     0     -25.062   8.275   4.361  0.00  0.00     0.131 C 
HETATM    4  O   UNK     0     -24.068   8.256   3.317  0.00  0.00    -0.380 OA
HETATM    5  C   UNK     0     -22.973   9.093   3.727  0.00  0.00     0.126 C 
HETATM    6  C   UNK     0     -23.015   9.099   5.251  0.00  0.00     0.017 C 
HETATM    7  C   UNK     0     -21.661   8.613   3.118  0.00  0.00     0.032 C 
HETATM    8  C   UNK     0     -24.515   9.156   5.482  0.00  0.00     0.039 C 
HETATM    9  C   UNK     0     -22.396   7.844   5.886  0.00  0.00     0.007 C 
HETATM   10  C   UNK     0     -21.033   7.515   5.292  0.00  0.00     0.001 C 
HETATM   11  C   UNK     0     -21.129   7.346   3.779  0.00  0.00     0.002 C 
ENDBRANCH   2   3
TORSDOF 1
ENDMDL
MODEL 2
REMARK VINA RESULT:      -4.6     18.186     19.877
REMARK  1 active torsions:
REMARK  status: ('A' for Active; 'I' for Inactive)
REMARK    1  A    between atoms: C_8  and  C_11 
ROOT
HETATM    1  I   UNK     0     -44.145  19.273   2.504  0.00  0.00    -0.087 I 
HETATM    2  C   UNK     0     -43.635  17.217   2.265  0.00  0.00     0.111 C 
ENDROOT
BRANCH   2   3
HETATM    3  C   UNK     0     -42.142  17.051   2.044  0.00  0.00     0.131 C 
HETATM    4  O   UNK     0     -41.912  16.063   1.020  0.00  0.00    -0.380 OA
HETATM    5  C   UNK     0     -41.156  16.682  -0.035  0.00  0.00     0.126 C 
HETATM    6  C   UNK     0     -40.396  17.826   0.627  0.00  0.00     0.017 C 
HETATM    7  C   UNK     0     -40.286  15.660  -0.756  0.00  0.00     0.032 C 
HETATM    8  C   UNK     0     -41.454  18.335   1.589  0.00  0.00     0.039 C 
HETATM    9  C   UNK     0     -39.132  17.371   1.373  0.00  0.00     0.007 C 
HETATM   10  C   UNK     0     -38.269  16.445   0.524  0.00  0.00     0.001 C 
HETATM   11  C   UNK     0     -39.071  15.234   0.061  0.00  0.00     0.002 C 
ENDBRANCH   2   3
TORSDOF 1
ENDMDL
MODEL 3
REMARK VINA RESULT:      -4.5      1.575      3.098
REMARK  1 active torsions:
REMARK  status: ('A' for Active; 'I' for Inactive)
REMARK    1  A    between atoms: C_8  and  C_11 
ROOT
HETATM    1  I   UNK     0     -24.799   8.797   0.044  0.00  0.00    -0.087 I 
HETATM    2  C   UNK     0     -22.744   8.261   0.236  0.00  0.00     0.111 C 
ENDROOT
BRANCH   2   3
HETATM    3  C   UNK     0     -22.288   8.368   1.679  0.00  0.00     0.131 C 
HETATM    4  O   UNK     0     -23.428   8.596   2.531  0.00  0.00    -0.380 OA
HETATM    5  C   UNK     0     -23.483   7.535   3.498  0.00  0.00     0.126 C 
HETATM    6  C   UNK     0     -22.048   7.035   3.635  0.00  0.00     0.017 C 
HETATM    7  C   UNK     0     -24.128   8.009   4.795  0.00  0.00     0.032 C 
HETATM    8  C   UNK     0     -21.596   7.105   2.187  0.00  0.00     0.039 C 
HETATM    9  C   UNK     0     -21.175   7.920   4.538  0.00  0.00     0.007 C 
HETATM   10  C   UNK     0     -21.862   8.242   5.860  0.00  0.00     0.001 C 
HETATM   11  C   UNK     0     -23.212   8.907   5.619  0.00  0.00     0.002 C 
ENDBRANCH   2   3
TORSDOF 1
ENDMDL
MODEL 4
REMARK VINA RESULT:      -4.3      2.093      2.764
REMARK  1 active torsions:
REMARK  status: ('A' for Active; 'I' for Inactive)
REMARK    1  A    between atoms: C_8  and  C_11 
ROOT
HETATM    1  I   UNK     0     -24.531  11.800   1.717  0.00  0.00    -0.087 I 
HETATM    2  C   UNK     0     -23.903  10.570   3.340  0.00  0.00     0.111 C 
ENDROOT
BRANCH   2   3
HETATM    3  C   UNK     0     -23.640   9.150   2.874  0.00  0.00     0.131 C 
HETATM    4  O   UNK     0     -22.236   8.850   3.007  0.00  0.00    -0.380 OA
HETATM    5  C   UNK     0     -22.103   7.706   3.868  0.00  0.00     0.126 C 
HETATM    6  C   UNK     0     -23.417   6.943   3.736  0.00  0.00     0.017 C 
HETATM    7  C   UNK     0     -20.854   6.905   3.523  0.00  0.00     0.032 C 
HETATM    8  C   UNK     0     -24.399   8.100   3.682  0.00  0.00     0.039 C 
HETATM    9  C   UNK     0     -23.499   6.079   2.468  0.00  0.00     0.007 C 
HETATM   10  C   UNK     0     -22.251   5.227   2.276  0.00  0.00     0.001 C 
HETATM   11  C   UNK     0     -21.001   6.100   2.236  0.00  0.00     0.002 C 
ENDBRANCH   2   3
TORSDOF 1
ENDMDL
MODEL 5
REMARK VINA RESULT:      -4.1      2.487      2.972
REMARK  1 active torsions:
REMARK  status: ('A' for Active; 'I' for Inactive)
REMARK    1  A    between atoms: C_8  and  C_11 
ROOT
HETATM    1  I   UNK     0     -27.940   5.033   6.109  0.00  0.00    -0.087 I 
HETATM    2  C   UNK     0     -27.520   6.553   4.675  0.00  0.00     0.111 C 
ENDROOT
BRANCH   2   3
HETATM    3  C   UNK     0     -26.023   6.728   4.492  0.00  0.00     0.131 C 
HETATM    4  O   UNK     0     -25.682   8.124   4.607  0.00  0.00    -0.380 OA
HETATM    5  C   UNK     0     -24.727   8.264   5.672  0.00  0.00     0.126 C 
HETATM    6  C   UNK     0     -24.024   6.914   5.769  0.00  0.00     0.017 C 
HETATM    7  C   UNK     0     -23.808   9.455   5.430  0.00  0.00     0.032 C 
HETATM    8  C   UNK     0     -25.198   5.979   5.536  0.00  0.00     0.039 C 
HETATM    9  C   UNK     0     -22.930   6.716   4.710  0.00  0.00     0.007 C 
HETATM   10  C   UNK     0     -21.992   7.913   4.626  0.00  0.00     0.001 C 
HETATM   11  C   UNK     0     -22.772   9.192   4.343  0.00  0.00     0.002 C 
ENDBRANCH   2   3
TORSDOF 1
ENDMDL
MODEL 6
REMARK VINA RESULT:      -4.1      4.973      6.596
REMARK  1 active torsions:
REMARK  status: ('A' for Active; 'I' for Inactive)
REMARK    1  A    between atoms: C_8  and  C_11 
ROOT
HETATM    1  I   UNK     0     -22.313   9.688   1.938  0.00  0.00    -0.087 I 
HETATM    2  C   UNK     0     -23.849  10.788   2.925  0.00  0.00     0.111 C 
ENDROOT
BRANCH   2   3
HETATM    3  C   UNK     0     -24.961  11.153   1.959  0.00  0.00     0.131 C 
HETATM    4  O   UNK     0     -24.693  12.446   1.381  0.00  0.00    -0.380 OA
HETATM    5  C   UNK     0     -24.634  12.293  -0.047  0.00  0.00     0.126 C 
HETATM    6  C   UNK     0     -25.484  11.066  -0.360  0.00  0.00     0.017 C 
HETATM    7  C   UNK     0     -25.064  13.574  -0.753  0.00  0.00     0.032 C 
HETATM    8  C   UNK     0     -25.102  10.167   0.802  0.00  0.00     0.039 C 
HETATM    9  C   UNK     0     -26.992  11.354  -0.375  0.00  0.00     0.007 C 
HETATM   10  C   UNK     0     -27.332  12.587  -1.203  0.00  0.00     0.001 C 
HETATM   11  C   UNK     0     -26.570  13.805  -0.695  0.00  0.00     0.002 C 
ENDBRANCH   2   3
TORSDOF 1
ENDMDL
MODEL 7
REMARK VINA RESULT:      -4.1     18.338     20.150
REMARK  1 active torsions:
REMARK  status: ('A' for Active; 'I' for Inactive)
REMARK    1  A    between atoms: C_8  and  C_11 
ROOT
HETATM    1  I   UNK     0     -44.770  15.241   2.453  0.00  0.00    -0.087 I 
HETATM    2  C   UNK     0     -43.793  16.649   1.187  0.00  0.00     0.111 C 
ENDROOT
BRANCH   2   3
HETATM    3  C   UNK     0     -42.561  17.222   1.862  0.00  0.00     0.131 C 
HETATM    4  O   UNK     0     -41.376  16.665   1.260  0.00  0.00    -0.380 OA
HETATM    5  C   UNK     0     -40.581  17.750   0.752  0.00  0.00     0.126 C 
HETATM    6  C   UNK     0     -40.960  18.962   1.596  0.00  0.00     0.017 C 
HETATM    7  C   UNK     0     -39.099  17.393   0.762  0.00  0.00     0.032 C 
HETATM    8  C   UNK     0     -42.456  18.740   1.734  0.00  0.00     0.039 C 
HETATM    9  C   UNK     0     -40.268  18.994   2.967  0.00  0.00     0.007 C 
HETATM   10  C   UNK     0     -38.769  18.743   2.858  0.00  0.00     0.001 C 
HETATM   11  C   UNK     0     -38.494  17.415   2.161  0.00  0.00     0.002 C 
ENDBRANCH   2   3
TORSDOF 1
ENDMDL
MODEL 8
REMARK VINA RESULT:      -4.1     29.685     30.866
REMARK  1 active torsions:
REMARK  status: ('A' for Active; 'I' for Inactive)
REMARK    1  A    between atoms: C_8  and  C_11 
ROOT
HETATM    1  I   UNK     0     -45.195  33.657   3.351  0.00  0.00    -0.087 I 
HETATM    2  C   UNK     0     -45.173  31.552   3.018  0.00  0.00     0.111 C 
ENDROOT
BRANCH   2   3
HETATM    3  C   UNK     0     -44.202  31.187   1.911  0.00  0.00     0.131 C 
HETATM    4  O   UNK     0     -44.772  30.147   1.091  0.00  0.00    -0.380 OA
HETATM    5  C   UNK     0     -44.838  30.630  -0.261  0.00  0.00     0.126 C 
HETATM    6  C   UNK     0     -43.743  31.686  -0.370  0.00  0.00     0.017 C 
HETATM    7  C   UNK     0     -44.730  29.482  -1.257  0.00  0.00     0.032 C 
HETATM    8  C   UNK     0     -43.878  32.358   0.986  0.00  0.00     0.039 C 
HETATM    9  C   UNK     0     -42.339  31.095  -0.566  0.00  0.00     0.007 C 
HETATM   10  C   UNK     0     -42.312  30.039  -1.665  0.00  0.00     0.001 C 
HETATM   11  C   UNK     0     -43.314  28.928  -1.372  0.00  0.00     0.002 C 
ENDBRANCH   2   3
TORSDOF 1
ENDMDL
MODEL 9
REMARK VINA RESULT:      -4.1      1.705      2.244
REMARK  1 active torsions:
REMARK  status: ('A' for Active; 'I' for Inactive)
REMARK    1  A    between atoms: C_8  and  C_11 
ROOT
HETATM    1  I   UNK     0     -26.465  11.060   2.395  0.00  0.00    -0.087 I 
HETATM    2  C   UNK     0     -25.920   9.984   4.153  0.00  0.00     0.111 C 
ENDROOT
BRANCH   2   3
HETATM    3  C   UNK     0     -24.548   9.354   4.000  0.00  0.00     0.131 C 
HETATM    4  O   UNK     0     -24.674   8.070   3.359  0.00  0.00    -0.380 OA
HETATM    5  C   UNK     0     -23.881   8.090   2.160  0.00  0.00     0.126 C 
HETATM    6  C   UNK     0     -22.794   9.130   2.408  0.00  0.00     0.017 C 
HETATM    7  C   UNK     0     -23.373   6.695   1.816  0.00  0.00     0.032 C 
HETATM    8  C   UNK     0     -23.595  10.188   3.148  0.00  0.00     0.039 C 
HETATM    9  C   UNK     0     -21.630   8.608   3.263  0.00  0.00     0.007 C 
HETATM   10  C   UNK     0     -21.115   7.262   2.768  0.00  0.00     0.001 C 
HETATM   11  C   UNK     0     -22.241   6.235   2.729  0.00  0.00     0.002 C 
ENDBRANCH   2   3
TORSDOF 1
ENDMDL
