MODEL 1
REMARK VINA RESULT:      -4.9      0.000      0.000
REMARK  1 active torsions:
REMARK  status: ('A' for Active; 'I' for Inactive)
REMARK    1  A    between atoms: C_8  and  C_11 
ROOT
HETATM    1  I   UNK     0      -4.217  39.868 -53.147  0.00  0.00    -0.087 I 
HETATM    2  C   UNK     0      -2.666  41.019 -54.050  0.00  0.00     0.111 C 
ENDROOT
BRANCH   2   3
HETATM    3  C   UNK     0      -2.347  40.502 -55.441  0.00  0.00     0.131 C 
HETATM    4  O   UNK     0      -1.712  39.211 -55.343  0.00  0.00    -0.380 OA
HETATM    5  C   UNK     0      -2.507  38.266 -56.079  0.00  0.00     0.126 C 
HETATM    6  C   UNK     0      -3.248  39.087 -57.129  0.00  0.00     0.017 C 
HETATM    7  C   UNK     0      -1.643  37.139 -56.631  0.00  0.00     0.032 C 
HETATM    8  C   UNK     0      -3.585  40.326 -56.317  0.00  0.00     0.039 C 
HETATM    9  C   UNK     0      -2.387  39.436 -58.352  0.00  0.00     0.007 C 
HETATM   10  C   UNK     0      -1.655  38.218 -58.903  0.00  0.00     0.001 C 
HETATM   11  C   UNK     0      -0.795  37.572 -57.823  0.00  0.00     0.002 C 
ENDBRANCH   2   3
TORSDOF 1
ENDMDL
MODEL 2
REMARK VINA RESULT:      -4.8     26.143     27.481
REMARK  1 active torsions:
REMARK  status: ('A' for Active; 'I' for Inactive)
REMARK    1  A    between atoms: C_8  and  C_11 
ROOT
HETATM    1  I   UNK     0     -18.308  32.531 -77.204  0.00  0.00    -0.087 I 
HETATM    2  C   UNK     0     -16.208  32.865 -77.061  0.00  0.00     0.111 C 
ENDROOT
BRANCH   2   3
HETATM    3  C   UNK     0     -15.432  31.713 -77.673  0.00  0.00     0.131 C 
HETATM    4  O   UNK     0     -16.312  30.922 -78.497  0.00  0.00    -0.380 OA
HETATM    5  C   UNK     0     -15.776  30.900 -79.830  0.00  0.00     0.126 C 
HETATM    6  C   UNK     0     -14.276  31.130 -79.670  0.00  0.00     0.017 C 
HETATM    7  C   UNK     0     -16.158  29.614 -80.552  0.00  0.00     0.032 C 
HETATM    8  C   UNK     0     -14.278  32.170 -78.562  0.00  0.00     0.039 C 
HETATM    9  C   UNK     0     -13.505  29.869 -79.253  0.00  0.00     0.007 C 
HETATM   10  C   UNK     0     -13.871  28.665 -80.112  0.00  0.00     0.001 C 
HETATM   11  C   UNK     0     -15.372  28.402 -80.061  0.00  0.00     0.002 C 
ENDBRANCH   2   3
TORSDOF 1
ENDMDL
MODEL 3
REMARK VINA RESULT:      -4.7     26.478     27.896
REMARK  1 active torsions:
REMARK  status: ('A' for Active; 'I' for Inactive)
REMARK    1  A    between atoms: C_8  and  C_11 
ROOT
HETATM    1  I   UNK     0     -18.088  32.781 -81.842  0.00  0.00    -0.087 I 
HETATM    2  C   UNK     0     -17.057  30.925 -81.651  0.00  0.00     0.111 C 
ENDROOT
BRANCH   2   3
HETATM    3  C   UNK     0     -16.008  30.997 -80.557  0.00  0.00     0.131 C 
HETATM    4  O   UNK     0     -16.591  31.561 -79.365  0.00  0.00    -0.380 OA
HETATM    5  C   UNK     0     -16.437  30.608 -78.300  0.00  0.00     0.126 C 
HETATM    6  C   UNK     0     -15.223  29.766 -78.679  0.00  0.00     0.017 C 
HETATM    7  C   UNK     0     -16.342  31.308 -76.950  0.00  0.00     0.032 C 
HETATM    8  C   UNK     0     -15.441  29.632 -80.175  0.00  0.00     0.039 C 
HETATM    9  C   UNK     0     -13.883  30.450 -78.366  0.00  0.00     0.007 C 
HETATM   10  C   UNK     0     -13.844  31.015 -76.952  0.00  0.00     0.001 C 
HETATM   11  C   UNK     0     -14.996  31.989 -76.728  0.00  0.00     0.002 C 
ENDBRANCH   2   3
TORSDOF 1
ENDMDL
MODEL 4
REMARK VINA RESULT:      -4.6     59.661     60.995
REMARK  1 active torsions:
REMARK  status: ('A' for Active; 'I' for Inactive)
REMARK    1  A    between atoms: C_8  and  C_11 
ROOT
HETATM    1  I   UNK     0     -34.034   8.716-103.212  0.00  0.00    -0.087 I 
HETATM    2  C   UNK     0     -34.813  10.700-103.184  0.00  0.00     0.111 C 
ENDROOT
BRANCH   2   3
HETATM    3  C   UNK     0     -34.069  11.561-102.179  0.00  0.00     0.131 C 
HETATM    4  O   UNK     0     -34.861  11.702-100.983  0.00  0.00    -0.380 OA
HETATM    5  C   UNK     0     -34.091  11.205 -99.876  0.00  0.00     0.126 C 
HETATM    6  C   UNK     0     -32.632  11.359-100.293  0.00  0.00     0.017 C 
HETATM    7  C   UNK     0     -34.472  11.915 -98.582  0.00  0.00     0.032 C 
HETATM    8  C   UNK     0     -32.726  10.970-101.758  0.00  0.00     0.039 C 
HETATM    9  C   UNK     0     -32.096  12.789-100.126  0.00  0.00     0.007 C 
HETATM   10  C   UNK     0     -32.427  13.368 -98.756  0.00  0.00     0.001 C 
HETATM   11  C   UNK     0     -33.931  13.339 -98.506  0.00  0.00     0.002 C 
ENDBRANCH   2   3
TORSDOF 1
ENDMDL
MODEL 5
REMARK VINA RESULT:      -4.6      1.601      2.324
REMARK  1 active torsions:
REMARK  status: ('A' for Active; 'I' for Inactive)
REMARK    1  A    between atoms: C_8  and  C_11 
ROOT
HETATM    1  I   UNK     0      -6.613  39.478 -53.389  0.00  0.00    -0.087 I 
HETATM    2  C   UNK     0      -4.671  40.187 -53.905  0.00  0.00     0.111 C 
ENDROOT
BRANCH   2   3
HETATM    3  C   UNK     0      -3.998  39.254 -54.895  0.00  0.00     0.131 C 
HETATM    4  O   UNK     0      -4.023  39.844 -56.210  0.00  0.00    -0.380 OA
HETATM    5  C   UNK     0      -2.667  39.963 -56.672  0.00  0.00     0.126 C 
HETATM    6  C   UNK     0      -1.888  38.883 -55.930  0.00  0.00     0.017 C 
HETATM    7  C   UNK     0      -2.598  39.881 -58.192  0.00  0.00     0.032 C 
HETATM    8  C   UNK     0      -2.535  38.973 -54.559  0.00  0.00     0.039 C 
HETATM    9  C   UNK     0      -2.055  37.482 -56.537  0.00  0.00     0.007 C 
HETATM   10  C   UNK     0      -1.850  37.484 -58.047  0.00  0.00     0.001 C 
HETATM   11  C   UNK     0      -2.805  38.465 -58.719  0.00  0.00     0.002 C 
ENDBRANCH   2   3
TORSDOF 1
ENDMDL
MODEL 6
REMARK VINA RESULT:      -4.5     34.793     35.571
REMARK  1 active torsions:
REMARK  status: ('A' for Active; 'I' for Inactive)
REMARK    1  A    between atoms: C_8  and  C_11 
ROOT
HETATM    1  I   UNK     0       2.202  20.868 -84.388  0.00  0.00    -0.087 I 
HETATM    2  C   UNK     0       2.473  18.774 -84.099  0.00  0.00     0.111 C 
ENDROOT
BRANCH   2   3
HETATM    3  C   UNK     0       1.136  18.064 -83.993  0.00  0.00     0.131 C 
HETATM    4  O   UNK     0       0.076  18.971 -84.355  0.00  0.00    -0.380 OA
HETATM    5  C   UNK     0      -0.647  18.397 -85.456  0.00  0.00     0.126 C 
HETATM    6  C   UNK     0      -0.435  16.891 -85.341  0.00  0.00     0.017 C 
HETATM    7  C   UNK     0      -2.103  18.847 -85.449  0.00  0.00     0.032 C 
HETATM    8  C   UNK     0       1.022  16.853 -84.917  0.00  0.00     0.039 C 
HETATM    9  C   UNK     0      -1.341  16.224 -84.296  0.00  0.00     0.007 C 
HETATM   10  C   UNK     0      -2.797  16.648 -84.446  0.00  0.00     0.001 C 
HETATM   11  C   UNK     0      -2.929  18.165 -84.363  0.00  0.00     0.002 C 
ENDBRANCH   2   3
TORSDOF 1
ENDMDL
MODEL 7
REMARK VINA RESULT:      -4.5     34.159     35.094
REMARK  1 active torsions:
REMARK  status: ('A' for Active; 'I' for Inactive)
REMARK    1  A    between atoms: C_8  and  C_11 
ROOT
HETATM    1  I   UNK     0       3.276  19.776 -85.222  0.00  0.00    -0.087 I 
HETATM    2  C   UNK     0       1.396  20.726 -84.894  0.00  0.00     0.111 C 
ENDROOT
BRANCH   2   3
HETATM    3  C   UNK     0       0.258  19.730 -85.006  0.00  0.00     0.131 C 
HETATM    4  O   UNK     0       0.697  18.438 -84.540  0.00  0.00    -0.380 OA
HETATM    5  C   UNK     0      -0.162  18.037 -83.460  0.00  0.00     0.126 C 
HETATM    6  C   UNK     0      -1.480  18.768 -83.696  0.00  0.00     0.017 C 
HETATM    7  C   UNK     0      -0.270  16.519 -83.382  0.00  0.00     0.032 C 
HETATM    8  C   UNK     0      -0.963  20.113 -84.173  0.00  0.00     0.039 C 
HETATM    9  C   UNK     0      -2.369  18.100 -84.756  0.00  0.00     0.007 C 
HETATM   10  C   UNK     0      -2.510  16.601 -84.523  0.00  0.00     0.001 C 
HETATM   11  C   UNK     0      -1.142  15.930 -84.487  0.00  0.00     0.002 C 
ENDBRANCH   2   3
TORSDOF 1
ENDMDL
MODEL 8
REMARK VINA RESULT:      -4.4     32.923     34.757
REMARK  1 active torsions:
REMARK  status: ('A' for Active; 'I' for Inactive)
REMARK    1  A    between atoms: C_8  and  C_11 
ROOT
HETATM    1  I   UNK     0       1.937  21.780 -84.215  0.00  0.00    -0.087 I 
HETATM    2  C   UNK     0       0.116  21.298 -83.218  0.00  0.00     0.111 C 
ENDROOT
BRANCH   2   3
HETATM    3  C   UNK     0      -0.061  19.795 -83.109  0.00  0.00     0.131 C 
HETATM    4  O   UNK     0      -0.780  19.308 -84.260  0.00  0.00    -0.380 OA
HETATM    5  C   UNK     0       0.040  18.327 -84.916  0.00  0.00     0.126 C 
HETATM    6  C   UNK     0       0.952  17.767 -83.830  0.00  0.00     0.017 C 
HETATM    7  C   UNK     0      -0.816  17.293 -85.637  0.00  0.00     0.032 C 
HETATM    8  C   UNK     0       1.262  19.036 -83.054  0.00  0.00     0.039 C 
HETATM    9  C   UNK     0       0.271  16.717 -82.939  0.00  0.00     0.007 C 
HETATM   10  C   UNK     0      -0.460  15.660 -83.758  0.00  0.00     0.001 C 
HETATM   11  C   UNK     0      -1.484  16.307 -84.684  0.00  0.00     0.002 C 
ENDBRANCH   2   3
TORSDOF 1
ENDMDL
MODEL 9
REMARK VINA RESULT:      -4.3     22.619     23.449
REMARK  1 active torsions:
REMARK  status: ('A' for Active; 'I' for Inactive)
REMARK    1  A    between atoms: C_8  and  C_11 
ROOT
HETATM    1  I   UNK     0     -21.151  29.080 -62.698  0.00  0.00    -0.087 I 
HETATM    2  C   UNK     0     -23.049  29.445 -63.598  0.00  0.00     0.111 C 
ENDROOT
BRANCH   2   3
HETATM    3  C   UNK     0     -23.084  30.813 -64.253  0.00  0.00     0.131 C 
HETATM    4  O   UNK     0     -21.819  31.076 -64.892  0.00  0.00    -0.380 OA
HETATM    5  C   UNK     0     -22.065  31.321 -66.287  0.00  0.00     0.126 C 
HETATM    6  C   UNK     0     -23.501  31.831 -66.363  0.00  0.00     0.017 C 
HETATM    7  C   UNK     0     -21.015  32.257 -66.872  0.00  0.00     0.032 C 
HETATM    8  C   UNK     0     -24.162  30.938 -65.328  0.00  0.00     0.039 C 
HETATM    9  C   UNK     0     -23.643  33.316 -65.997  0.00  0.00     0.007 C 
HETATM   10  C   UNK     0     -22.624  34.185 -66.723  0.00  0.00     0.001 C 
HETATM   11  C   UNK     0     -21.205  33.706 -66.436  0.00  0.00     0.002 C 
ENDBRANCH   2   3
TORSDOF 1
ENDMDL
